.MODEL BAT41 D IS=10.000E-9 N=1.4402 RS=.12219 IKF=291.59E-6
+ EG=.69 XTI=2 CJO=3.5613E-12 M=.49981 VJ=.36559 ISR=2.0076E-9
+ FC=0.5 NR=4.9950 TT=0
