.SUBCKT DMC3071LVT G1 S2 G2 D2 S1 D1
.include ../../sim/DMC3071LVT.spice.txt
XU1A D1 G1 S1 DMC3071LVT_N
XU1B D2 G2 S2 DMC3071LVT_P
.ENDS
