.SUBCKT DMN3060LVT G1 S2 G2 D2 S1 D1
.include ../../sim/DMN3060LVT.spice.txt
XU1A D1 G1 S1 DMN3060LVT_N
XU1B D2 G2 S2 DMN3060LVT_N
.ENDS
