.SUBCKT DMP3164LVT G1 S2 G2 D2 S1 D1
.include ../../sim/DMP3164LVT.spice.txt
XU1A D1 G1 S1 DMP3164LVT_P
XU1B D2 G2 S2 DMP3164LVT_P
.ENDS
